Version 4
SHEET 1 1764 932
WIRE -144 128 -320 128
WIRE -48 128 -144 128
WIRE -144 144 -144 128
WIRE -560 160 -608 160
WIRE -448 160 -496 160
WIRE -144 240 -144 208
WIRE -144 240 -176 240
WIRE -48 240 -48 208
WIRE -48 240 -144 240
WIRE 1040 240 -48 240
WIRE -448 256 -448 160
WIRE -448 256 -464 256
WIRE -416 256 -448 256
WIRE -320 256 -320 128
WIRE -320 256 -336 256
WIRE -240 256 -320 256
WIRE -608 272 -608 160
WIRE -528 272 -608 272
WIRE -144 272 -176 272
WIRE -80 272 -144 272
WIRE 32 272 -80 272
WIRE 144 272 32 272
WIRE 256 272 144 272
WIRE 368 272 256 272
WIRE 480 272 368 272
WIRE 592 272 480 272
WIRE 704 272 592 272
WIRE 816 272 704 272
WIRE 928 272 816 272
WIRE 1168 272 928 272
WIRE -432 288 -464 288
WIRE -144 288 -144 272
WIRE -432 320 -432 288
WIRE -208 320 -256 320
WIRE -208 336 -208 320
WIRE -256 352 -256 320
WIRE -80 352 -80 272
WIRE 32 352 32 272
WIRE 144 352 144 272
WIRE 256 352 256 272
WIRE 368 352 368 272
WIRE 480 352 480 272
WIRE 592 352 592 272
WIRE 704 352 704 272
WIRE 816 352 816 272
WIRE 928 352 928 272
WIRE 1040 352 1040 240
WIRE 1168 352 1168 272
WIRE -208 480 -208 416
WIRE -80 480 -80 432
WIRE -80 480 -208 480
WIRE -64 480 -80 480
WIRE 32 480 32 432
WIRE 32 480 16 480
WIRE 48 480 32 480
WIRE 144 480 144 432
WIRE 144 480 128 480
WIRE 160 480 144 480
WIRE 256 480 256 432
WIRE 256 480 240 480
WIRE 272 480 256 480
WIRE 368 480 368 432
WIRE 368 480 352 480
WIRE 384 480 368 480
WIRE 480 480 480 432
WIRE 480 480 464 480
WIRE 496 480 480 480
WIRE 592 480 592 432
WIRE 592 480 576 480
WIRE 608 480 592 480
WIRE 704 480 704 432
WIRE 704 480 688 480
WIRE 720 480 704 480
WIRE 816 480 816 432
WIRE 816 480 800 480
WIRE 832 480 816 480
WIRE 928 480 928 432
WIRE 928 480 912 480
WIRE 944 480 928 480
WIRE 1040 480 1040 432
WIRE 1040 480 1024 480
WIRE 1056 480 1040 480
WIRE 1168 480 1168 432
WIRE 1168 480 1136 480
WIRE -608 528 -608 272
WIRE -480 528 -608 528
WIRE -256 544 -416 544
WIRE 1168 544 1168 480
WIRE 1168 544 -256 544
WIRE -480 560 -528 560
WIRE -528 656 -528 560
WIRE -384 656 -528 656
WIRE -256 656 -256 544
WIRE -256 656 -304 656
WIRE -528 688 -528 656
WIRE -528 816 -528 768
FLAG -144 288 0
FLAG -432 320 0
FLAG -528 816 0
FLAG -256 352 0
SYMBOL res 1184 448 R180
WINDOW 0 36 76 Left 2
WINDOW 3 36 40 Left 2
SYMATTR InstName R1
SYMATTR Value 20k
SYMBOL res 1056 448 R180
WINDOW 0 36 76 Left 2
WINDOW 3 36 40 Left 2
SYMATTR InstName R2
SYMATTR Value 20k
SYMBOL res 944 448 R180
WINDOW 0 36 76 Left 2
WINDOW 3 36 40 Left 2
SYMATTR InstName R3
SYMATTR Value 20k
SYMBOL res 832 448 R180
WINDOW 0 36 76 Left 2
WINDOW 3 36 40 Left 2
SYMATTR InstName R4
SYMATTR Value 20k
SYMBOL res 720 448 R180
WINDOW 0 36 76 Left 2
WINDOW 3 36 40 Left 2
SYMATTR InstName R5
SYMATTR Value 20k
SYMBOL res 608 448 R180
WINDOW 0 36 76 Left 2
WINDOW 3 36 40 Left 2
SYMATTR InstName R6
SYMATTR Value 20k
SYMBOL res 496 448 R180
WINDOW 0 36 76 Left 2
WINDOW 3 36 40 Left 2
SYMATTR InstName R7
SYMATTR Value 20k
SYMBOL res 384 448 R180
WINDOW 0 36 76 Left 2
WINDOW 3 36 40 Left 2
SYMATTR InstName R8
SYMATTR Value 20k
SYMBOL res 272 448 R180
WINDOW 0 36 76 Left 2
WINDOW 3 36 40 Left 2
SYMATTR InstName R9
SYMATTR Value 20k
SYMBOL res 160 448 R180
WINDOW 0 36 76 Left 2
WINDOW 3 36 40 Left 2
SYMATTR InstName R10
SYMATTR Value 20k
SYMBOL res 48 448 R180
WINDOW 0 36 76 Left 2
WINDOW 3 36 40 Left 2
SYMATTR InstName R11
SYMATTR Value 20k
SYMBOL res -64 448 R180
WINDOW 0 36 76 Left 2
WINDOW 3 36 40 Left 2
SYMATTR InstName R12
SYMATTR Value 20k
SYMBOL res 1040 496 R270
WINDOW 0 32 56 VTop 2
WINDOW 3 0 56 VBottom 2
SYMATTR InstName R13
SYMATTR Value 10k
SYMBOL res 928 496 R270
WINDOW 0 32 56 VTop 2
WINDOW 3 0 56 VBottom 2
SYMATTR InstName R14
SYMATTR Value 10k
SYMBOL res 816 496 R270
WINDOW 0 32 56 VTop 2
WINDOW 3 0 56 VBottom 2
SYMATTR InstName R15
SYMATTR Value 10k
SYMBOL res 704 496 R270
WINDOW 0 32 56 VTop 2
WINDOW 3 0 56 VBottom 2
SYMATTR InstName R16
SYMATTR Value 10k
SYMBOL res 592 496 R270
WINDOW 0 32 56 VTop 2
WINDOW 3 0 56 VBottom 2
SYMATTR InstName R17
SYMATTR Value 10k
SYMBOL res 480 496 R270
WINDOW 0 32 56 VTop 2
WINDOW 3 0 56 VBottom 2
SYMATTR InstName R18
SYMATTR Value 10k
SYMBOL res 368 496 R270
WINDOW 0 32 56 VTop 2
WINDOW 3 0 56 VBottom 2
SYMATTR InstName R19
SYMATTR Value 10k
SYMBOL res 256 496 R270
WINDOW 0 32 56 VTop 2
WINDOW 3 0 56 VBottom 2
SYMATTR InstName R20
SYMATTR Value 10k
SYMBOL res 144 496 R270
WINDOW 0 32 56 VTop 2
WINDOW 3 0 56 VBottom 2
SYMATTR InstName R21
SYMATTR Value 10k
SYMBOL res 32 496 R270
WINDOW 0 32 56 VTop 2
WINDOW 3 0 56 VBottom 2
SYMATTR InstName R22
SYMATTR Value 10k
SYMBOL res -80 496 R270
WINDOW 0 32 56 VTop 2
WINDOW 3 0 56 VBottom 2
SYMATTR InstName R23
SYMATTR Value 10k
SYMBOL cap -160 144 R0
SYMATTR InstName C1
SYMATTR Value 0.1µ
SYMBOL res -320 240 R90
WINDOW 0 0 56 VBottom 2
WINDOW 3 32 56 VTop 2
SYMATTR InstName R24
SYMATTR Value 1k
SYMBOL cap -496 144 R90
WINDOW 0 0 32 VBottom 2
WINDOW 3 32 32 VTop 2
SYMATTR InstName C2
SYMATTR Value 1µ
SYMBOL res -288 640 R90
WINDOW 0 0 56 VBottom 2
WINDOW 3 43 62 VTop 2
SYMATTR InstName R25
SYMATTR Value 20k
SYMBOL res -544 672 R0
SYMATTR InstName R26
SYMATTR Value 1k
SYMBOL res -224 320 R0
SYMATTR InstName R27
SYMATTR Value 20k
SYMBOL res -64 112 R0
SYMATTR InstName R28
SYMATTR Value 10k
SYMBOL TL082 -208 192 M0
SYMATTR InstName U1
SYMBOL TL082 -496 208 M0
SYMATTR InstName U2
SYMBOL TL082 -448 480 R0
SYMATTR InstName U3
TEXT -680 840 Left 2 !.tran 5000m
